<additional xmlns:xsi="http://www.w3.org/2001/XMLSchema-instance" xsi:noNamespaceSchemaLocation="http://sumo.dlr.de/xsd/additional_file.xsd">
<tlLogic id="traffic_light" type="static" programID="0" offset="0">
    <phase duration="27" state="grgg"/>
    <phase duration="3"  state="gyyy"/>
    <phase duration="27" state="ggrr"/>
    <phase duration="3"  state="gyyy"/>
</tlLogic>
</additional>